FoamFile
{
   version     2.0;
   format      ascii;
   class       dictionary;
   object      surfaceFeatureExtractDict;
}
// * * * * * * * * * * * * * * * * * * * * * * * * * * * * * * * * * * * * * // 
<SURFACE_FEAT_EXTRACT>