/*--------------------------------*- C++ -*----------------------------------*\
  =========                 |
  \\      /  F ield         | OpenFOAM: The Open Source CFD Toolbox
   \\    /   O peration     | Website:  https://openfoam.org
    \\  /    A nd           | Version:  8
     \\/     M anipulation  |
\*---------------------------------------------------------------------------*/
FoamFile
{
    version     2.0;
    format      ascii;
    class       dictionary;
    object      blockMeshDict;
}

// * * * * * * * * * * * * * * * * * * * * * * * * * * * * * * * * * * * * * //

convertToMeters 1;

vertices
(
<BLOCKMESH_VERT>
);

blocks
(
hex (0 1 2 3 4 5 6 7) <BLOCK_NUMBERS> simpleGrading (1 1 1)
);

edges
(
);

boundary
(
<BLOCKMESH_BOUNDARY>
);

// ************************************************************************* //
