/*--------------------------------*- C++ -*----------------------------------*\
| =========                 |                                                 |
| \\      /  F ield         | OpenFOAM: The Open Source CFD Toolbox           |
|  \\    /   O peration     | Version:  v2112                                 |
|   \\  /    A nd           | Website:  www.openfoam.com                      |
|    \\/     M anipulation  |                                                 |
\*---------------------------------------------------------------------------*/
FoamFile
{
    version     2.0;
    format      ascii;
    class       dictionary;
    object      snappyHexMeshDict;
}
// * * * * * * * * * * * * * * * * * * * * * * * * * * * * * * * * * * * * * //

castellatedMesh true;
snap            true;
addLayers       true;



geometry
{
<GEOMETRY>			
}



castellatedMeshControls
{
maxLocalCells 2000000;
maxGlobalCells 100000000;
minRefinementCells 10;
maxLoadUnbalance 0.10;
nCellsBetweenLevels 5;
features
(        
<FEATURE_EDGE>  	
);
    
refinementSurfaces
{      
<REFINEMENT_SURFACES>
}
resolveFeatureAngle <REF_ANGLE>;
refinementRegions
{

<REFINEMENT_REGIONS>

} 
locationInMesh <LOC_IN_MESH>;
allowFreeStandingZoneFaces true;
}



snapControls
{
nSmoothPatch 3;
tolerance 2.0;
nSolveIter 50;
nRelaxIter 5;
nFeatureSnapIter 10;
implicitFeatureSnap false;
explicitFeatureSnap true;
multiRegionFeatureSnap false;
}



addLayersControls
{
    
relativeSizes true;

layers
{
<LAYERS>	
"(y-max).*"{nSurfaceLayers -1;}	
"(y-min).*"{nSurfaceLayers -1;}	
"(z-min).*"{nSurfaceLayers 5;}
"(z-max).*"{nSurfaceLayers -1;}

}

expansionRatio <DEF_EX_RATIO>;
finalLayerThickness 0.3;
minThickness 0.000001;
nGrow 0;
featureAngle 180;
slipFeatureAngle 30;
nRelaxIter 3;
nSmoothSurfaceNormals 1;
nSmoothNormals 3;
nSmoothThickness 10;
maxFaceThicknessRatio 0.5;
maxThicknessToMedialRatio 0.8;
minMedialAxisAngle 90;
nBufferCellsNoExtrude 0;
nLayerIter 70;
}



meshQualityControls
{
#include "meshQualityDict"
maxNonOrtho 75;
maxBoundarySkewness 4;
maxInternalSkewness 4;
nSmoothScale 4;
errorReduction 0.75;
}

writeFlags
(
    scalarLevels
    layerSets
    layerFields     // write volScalarField for layer coverage
);
mergeTolerance 1e-6;
// ************************************************************************* //
