/*--------------------------------*- C++ -*----------------------------------*\
| =========                 |                                                 |
| \\      /  F ield         | OpenFOAM: The Open Source CFD Toolbox           |
|  \\    /   O peration     | Version:  v2112                                 |
|   \\  /    A nd           | Website:  www.openfoam.com                      |
|    \\/     M anipulation  |                                                 |
\*---------------------------------------------------------------------------*/
FoamFile
{
    version     2.0;
    format      ascii;
    class       dictionary;
    location    "templates";
    object      symmetry;
}
// * * * * * * * * * * * * * * * * * * * * * * * * * * * * * * * * * * * * * //

symmetry
{
    U
    {
        type        symmetryPlane;
    }
    p
    {
        type        symmetryPlane;
    }
    nut
    {
        type        symmetryPlane;
        
    }
    k
    {
        type        symmetryPlane;
    }
    epsilon
    {
        type        symmetryPlane;
    }
    omega
    {
        type        symmetryPlane;
    }
    
    nuTilda
    {
        type        symmetryPlane;
    }
}

