FoamFile
{
	version     2.0;
	format      ascii;
	class       dictionary;
	object      surfaceFeatureExtractDict;
}
// * * * * * * * * * * * * * * * * * * * * * * * * * * * * * * * * * * * * * // 
trial092.stl
{
	#include "extractSetupDict"
}
V0_radiator_media.stl
{
	#include "extractSetupDict"
}
V2_frontWing_detailed.stl
{
	#include "extractSetupDict"
}
V2_rearWing.stl
{
	#include "extractSetupDict"
}
fr-wh-lhs-v2.stl
{
	#include "extractSetupDict"
}
fr-wh-rhs-v2.stl
{
	#include "extractSetupDict"
}
rr-wh-lhs-v2.stl
{
	#include "extractSetupDict"
}
rr-wh-rhs-v2.stl
{
	#include "extractSetupDict"
}