/*--------------------------------*- C++ -*----------------------------------*\
  =========                 |
  \\      /  F ield         | OpenFOAM: The Open Source CFD Toolbox
   \\    /   O peration     | Website:  https://openfoam.org
    \\  /    A nd           | Version:  8
     \\/     M anipulation  |
\*---------------------------------------------------------------------------*/
FoamFile
{
    version     2.0;
    format      ascii;
    class       dictionary;
    object      fvSolution;
}
// * * * * * * * * * * * * * * * * * * * * * * * * * * * * * * * * * * * * * //
solvers
{
    p
    {
        solver           GAMG;
        tolerance        0;//1e-6;
        relTol           0.1;

        smoother         GaussSeidel;
        nPreSweeps       0;
        nPostSweeps      2;
//        nFinestSweeps    2;

        cacheAgglomeration true;

        nCellsInCoarsestLevel 10;
        agglomerator     faceAreaPair;
        mergeLevels      1;
        maxIter          4;
    }

    pFinal
    {
        solver           GAMG;
        tolerance        5e-6;
        relTol           0;

        smoother         GaussSeidel;
        nPreSweeps       0;
        nPostSweeps      2;

        cacheAgglomeration true;

        nCellsInCoarsestLevel 10;
        agglomerator     faceAreaPair;
        mergeLevels      1;

        maxIter          10;
    };
    
    U
    {
        solver           PBiCG;
        preconditioner   DILU;
        tolerance        0;//1e-08;
        relTol           0.1;
        maxIter          4;
    }
    
    UFinal
    {
        solver           PBiCG;
        preconditioner   DILU;
        tolerance        1e-08;
        relTol           0;
        maxIter          10;
    }
    
    nuTilda
    {
        solver           PBiCG;
        preconditioner   DILU;
        tolerance        0;//1e-07;
        relTol           0.01;
        maxIter          4;
    }
    nuTildaFinal
    {
        solver           PBiCG;
        preconditioner   DILU;
        tolerance        1e-07;
        relTol           0;
        maxIter          10;
    }

    
}

PISO
{
    nCorrectors     2;
    nNonOrthogonalCorrectors 1;
}

PIMPLE
{
    
    momentumPredictor yes;
    nOuterCorrectors    5;
    nCorrectors         1;
    nNonOrthogonalCorrectors 0;
     residualControl
    {
        p
        {
            tolerance 0;
            relTol    0.8;
        }
    }

    turbOnFinalIterOnly true; // false;

    #include "refsAndLimitsIncludeDict";
}

relaxationFactors
{
    fields
    {
       "p.*"           0.3;
    }
    equations
    {
       "nuTilda.*"     0.7;
       "U.*"           0.6;
    }
}

cache
{
   grad(U);
}    
    


// ************************************************************************* //
